CM 
CE
SY left_h=36.7	'mckee
SY right_h=40.8	'wiley
SY drop=25	'drop lengths
SY left_len=51.83	'mckee
SY right_len=52.166	'wiley
GW	1	19	-left_len	0	left_h	right_len	0	right_h	#20	'dipole
GW	2	9	-left_len	0	left_h	-left_len	0	left_h-drop	#20
GW	3	9	right_len	0	right_h	right_len	0	right_h-drop	#20
GS	0	0	0.3048
GE	1
LD	5	1	1	19	58000000
LD	5	2	1	9	58000000
LD	5	3	1	9	58000000
GN	2	0	0	0	13	0.004
EK
EX	0	1	10	0	0	0	0
FR	0	0	0	0	14.1	0
EN
