CM
CE
SY h=10
SY dia=dia
SY l=10
SY b=0.1
GW	1	13	b	0	0	0	0	b + h	dia
GW	2	13	0	0	b	0 + l * cos(0.0)	0 + l * sin(0.0)	b	dia
GW	3	13	0	0	b	0 + l * cos(90.0)	0 + l * sin(90.0)	b	dia
GW	4	13	0	0	b	0 + l * cos(180.0)	0 + l * sin(180.0)	b	dia
GW	5	13	0	0	b	0 + l * cos(270.0)	0 + l * sin(270.0)	b	dia
GS	0	0	1
GE	1
LD	5	1	1	13	58000000
LD	5	2	1	13	58000000
LD	5	3	1	13	58000000
LD	5	4	1	13	58000000
LD	5	5	1	13	58000000
GN	2	0	0	0	13	0.005
EK
EX	0	1	1	0	0
FR	0	0	0	0	7.15	0
EN
