CM
CE
SY h=10
SY dia=0.001
GW	1	13	0	0	0	0	0	h	dia
GW	2	13	0	0	h	0	0	2*h	dia
GW	3	13	0	0	0	10.0	0.0	0	0.001628
GW	4	13	0	0	0	9.808	1.951	0	0.001628
GW	5	13	0	0	0	9.239	3.827	0	0.001628
GW	6	13	0	0	0	8.315	5.556	0	0.001628
GW	7	13	0	0	0	7.071	7.071	0	0.001628
GW	8	13	0	0	0	5.556	8.315	0	0.001628
GW	9	13	0	0	0	3.827	9.239	0	0.001628
GW	10	13	0	0	0	1.951	9.808	0	0.001628
GW	11	13	0	0	0	0.0	10.0	0	0.001628
GW	12	13	0	0	0	-1.951	9.808	0	0.001628
GW	13	13	0	0	0	-3.827	9.239	0	0.001628
GW	14	13	0	0	0	-5.556	8.315	0	0.001628
GW	15	13	0	0	0	-7.071	7.071	0	0.001628
GW	16	13	0	0	0	-8.315	5.556	0	0.001628
GW	17	13	0	0	0	-9.239	3.827	0	0.001628
GW	18	13	0	0	0	-9.808	1.951	0	0.001628
GW	19	13	0	0	0	-10.0	0.0	0	0.001628
GW	20	13	0	0	0	-9.808	-1.951	0	0.001628
GW	21	13	0	0	0	-9.239	-3.827	0	0.001628
GW	22	13	0	0	0	-8.315	-5.556	0	0.001628
GW	23	13	0	0	0	-7.071	-7.071	0	0.001628
GW	24	13	0	0	0	-5.556	-8.315	0	0.001628
GW	25	13	0	0	0	-3.827	-9.239	0	0.001628
GW	26	13	0	0	0	-1.951	-9.808	0	0.001628
GW	27	13	0	0	0	-0.0	-10.0	0	0.001628
GW	28	13	0	0	0	1.951	-9.808	0	0.001628
GW	29	13	0	0	0	3.827	-9.239	0	0.001628
GW	30	13	0	0	0	5.556	-8.315	0	0.001628
GW	31	13	0	0	0	7.071	-7.071	0	0.001628
GW	32	13	0	0	0	8.315	-5.556	0	0.001628
GW	33	13	0	0	0	9.239	-3.827	0	0.001628
GW	34	13	0	0	0	9.808	-1.951	0	0.001628
GS	0	0	1
GE	1
LD	5	1	1	13	58000000
LD	5	2	1	13	58000000
LD	5	3	1	13	58000000
LD	5	4	1	13	58000000
LD	5	5	1	13	58000000
LD	5	6	1	13	58000000
LD	5	7	1	13	58000000
LD	5	8	1	13	58000000
LD	5	9	1	13	58000000
LD	5	10	1	13	58000000
LD	5	11	1	13	58000000
LD	5	12	1	13	58000000
LD	5	13	1	13	58000000
LD	5	14	1	13	58000000
LD	5	15	1	13	58000000
LD	5	16	1	13	58000000
LD	5	17	1	13	58000000
LD	5	18	1	13	58000000
LD	5	19	1	13	58000000
LD	5	20	1	13	58000000
LD	5	21	1	13	58000000
LD	5	22	1	13	58000000
LD	5	23	1	13	58000000
LD	5	24	1	13	58000000
LD	5	25	1	13	58000000
LD	5	26	1	13	58000000
LD	5	27	1	13	58000000
LD	5	28	1	13	58000000
LD	5	29	1	13	58000000
LD	5	30	1	13	58000000
LD	5	31	1	13	58000000
LD	5	32	1	13	58000000
LD	5	33	1	13	58000000
LD	5	34	1	13	58000000
GN	2	0	0	0	13	0.005
EK
EX	0	1	1	0	0
FR	0	0	0	0	7.15	0
EN
