CM 
CE
SY c=.2
SY f=0.120381
SY sep1=.018
SY sep2=.018
SY sepy=0
SY tot=0.292024
SY l = tot - f - sep1
SY lsegs=19
SY fsegs=9	'top=.35*lam, bott=.0464*lam
GW	1	lsegs	0	0	c - l	0	0	c + l	#14
GW	2	1	0	0	c-l	sep1	0	c-l	#14
GW	3	1	0	0	c+l	sep2	sepy	c+l	#14
GW	4	fsegs	sep2	sepy	c+l	sep2	sepy	c+l-f	#14
GW	5	fsegs	sep1	0	c-l	sep1	0	c-l+f	#14
GS	0	0	21.26241
GE	1
GN	2	0	0	0	13	0.005
EK
EX	0	1	10	0	0	0	0
FR	0	0	0	0	7.1	0
EN
