CM 
CE
SY sep=.2
SY height=37
SY len=66.21574
SY len_forty=67.53378
GW	1	99	-len/2	0	height	len/2	0	height	#14
GW	2	99	-len/2	0	height+sep	len/2	0	height+sep	#14
GW	3	1	-len/2	0	height	-len/2	0	height+sep	#14
GW	4	1	len/2	0	height	len/2	0	height+sep	#14
GS	0	0	0.3048
GE	1
LD	5	1	1	19	58000000
LD	5	2	1	19	58000000
LD	5	3	1	3	58000000
LD	5	4	1	3	58000000
GN	2	0	0	0	13	0.005
EK
EX	0	1	50	0	0	0	0


FR	0	0	0	0	7.1	0
EN
